LTspice 24.0.12 for Windows
Circuit: * C:\Student\74\Symulacja_LTspice\Symulacja_LTspice\Draft2.asc
Start Time: Fri Oct 18 08:44:25 2024
solver = Normal
Maximum thread count: 12
tnom = 27
temp = 27
method = modified trap
.OP point found by inspection.
Total elapsed time: 0.144 seconds.

