LTspice 24.0.12 for Windows
Circuit: * C:\Student\IZI7.2\Symulacja_LTspice\Symulacja_LTspice\Draft1.asc
Start Time: Wed Oct 16 13:19:01 2024
solver = Normal
Maximum thread count: 12
tnom = 27
temp = 27
method = modified trap
.OP point found by inspection.
Total elapsed time: 0.204 seconds.

